/*---------------------------------------------------------------------------*\
| =========                 |                                                 |
| \\      /  F ield         | OpenFOAM: The Open Source CFD Toolbox           |
|  \\    /   O peration     | Version:  2212                                  |
|   \\  /    A nd           | Website:  www.openfoam.com                      |
|    \\/     M anipulation  |                                                 |
\*---------------------------------------------------------------------------*/
Build  : _fd8c5e00-20221221 OPENFOAM=2212 version=2212
Arch   : "LSB;label=32;scalar=64"
Exec   : decomposePar
Date   : Feb 01 2023
Time   : 17:46:14
Host   : DESKTOP-OITNCD3
PID    : 7525
I/O    : uncollated
Case   : /home/pavlux/laminarFlowAroundSphere/Re-300/Potential-simulation-for-initialization
nProcs : 1
trapFpe: Floating point exception trapping enabled (FOAM_SIGFPE).
fileModificationChecking : Monitoring run-time modified files using timeStampMaster (fileModificationSkew 5, maxFileModificationPolls 20)
allowSystemOperations : Allowing user-supplied system call operations

// * * * * * * * * * * * * * * * * * * * * * * * * * * * * * * * * * * * * * //
Create time



Decomposing mesh

Create mesh

Calculating distribution of cells
Decomposition method simple [4] (region region0)

Finished decomposition in 0.2 s

Calculating original mesh data

Distributing cells to processors

Distributing faces to processors

Distributing points to processors

Constructing processor meshes
Reading hexRef8 data : cellLevel
Reading hexRef8 data : pointLevel
Reading hexRef8 data : level0Edge

Processor 0
    Number of cells = 44982
    Number of points = 52146
    Number of faces shared with processor 1 = 1870
    Number of faces shared with processor 2 = 1870
    Number of processor patches = 2
    Number of processor faces = 3740
    Number of boundary faces = 5504

Processor 1
    Number of cells = 44982
    Number of points = 52146
    Number of faces shared with processor 0 = 1870
    Number of faces shared with processor 3 = 1870
    Number of processor patches = 2
    Number of processor faces = 3740
    Number of boundary faces = 5504

Processor 2
    Number of cells = 44982
    Number of points = 52146
    Number of faces shared with processor 0 = 1870
    Number of faces shared with processor 3 = 1870
    Number of processor patches = 2
    Number of processor faces = 3740
    Number of boundary faces = 5504

Processor 3
    Number of cells = 44982
    Number of points = 52146
    Number of faces shared with processor 1 = 1870
    Number of faces shared with processor 2 = 1870
    Number of processor patches = 2
    Number of processor faces = 3740
    Number of boundary faces = 5504

Number of processor faces = 7480
Max number of cells = 44982 (0% above average 44982)
Max number of processor patches = 2 (0% above average 2)
Max number of faces between processors = 3740 (0% above average 3740)

Time = 0

Processor 0: field transfer
Processor 1: field transfer
Processor 2: field transfer
Processor 3: field transfer

End

